LAMMPS (10 Feb 2015)
# Input file for running an NVT Equilibration in LAMMPS, Filename = in.P3HTLeeE250_150

units real
atom_style full
boundary p p p
bond_style harmonic
dielectric 9.8
pair_style lj/cut/coul/long 20.0
angle_style harmonic
dihedral_style opls
special_bonds lj 0 1 1
improper_style none
kspace_style ewald 10
read_data data.rewrite
  orthogonal box = (-30.2304 -14.0911 -12.5168) to (19.5736 19.7477 13.397)
  reading atoms ...
  140 atoms
  scanning bonds ...
  scanning angles ...
  scanning dihedrals ...
  reading bonds ...
  147 bonds
  reading angles ...
  270 angles
  reading dihedrals ...
  623 dihedrals
thermo_style custom step temp press ke pe etotal density
dump 1 all custom 200 rewrite_partial.lammpstrj id type mol xs ys zs vx vy vz
neighbor 10.0 bin
neigh_modify every 1 delay 0 one 2000
fix 1 all npt temp 100 100 100 iso 0.0 1 1000 drag 2
fix 2 all momentum 1 linear 1 1 1
velocity all create 100.00000 1223
timestep 1
thermo 100
run 10000
Ewald initialization ...
  G vector (1/distance) = 0.00669066
  estimated absolute RMS force accuracy = 0.0171491
  estimated relative force accuracy = 5.16441e-05
  KSpace vectors: actual max1d max3d = 5 1 13
                  kxmax kymax kzmax  = 1 1 1
  1 neighbor list requests
  update every 1 steps, delay 0 steps, check yes
Step Temp Press KinEng PotEng TotEng Density
0          100    23595.225     41.43326    31699.249    31740.682  0.038843146
Averages over the last 51 of 101 rows, steps 5000 to 10000:
Temp Press KinEng PotEng TotEng Density
100.861 11.7352 41.7901 28078.5 28120.3 0.0415309
Loop time of 11.0321 on 8 procs for 10000 steps with 140 atoms

Pair  time (%) = 0.775842 (7.03257)
Bond  time (%) = 0.29621 (2.68498)
Kspce time (%) = 2.01915 (18.3024)
Neigh time (%) = 0.00496015 (0.0449609)
Comm  time (%) = 5.81772 (52.7343)
Outpt time (%) = 0.0396168 (0.359104)
Other time (%) = 2.07864 (18.8417)

unfix 1
unfix 2
write_restart restart.rewrite_partial
Ewald initialization ...
  G vector (1/distance) = 0.00669066
  estimated absolute RMS force accuracy = 0.0180761
  estimated relative force accuracy = 5.44357e-05
  KSpace vectors: actual max1d max3d = 5 1 13
                  kxmax kymax kzmax  = 1 1 1

replicate 3 3 3
  orthogonal box = (-29.3716 -13.5076 -12.07) to (114.887 84.5076 62.9904)
  3780 atoms
  3969 bonds
  7290 angles
  16821 dihedrals
undump 1
fix 1 all npt temp 100 300 100 iso 10 1 1000 drag 2
fix 2 all momentum 1 linear 1 1 1
velocity all create 100.00000 1223
dump 2 all custom 200 rewrite_partial_final.lammpstrj id type mol xs ys zs vx vy vz
run 500000
Ewald initialization ...
  G vector (1/distance) = 0.00669066
  estimated absolute RMS force accuracy = 0.0180761
  estimated relative force accuracy = 5.44357e-05
  KSpace vectors: actual max1d max3d = 5 1 13
                  kxmax kymax kzmax  = 1 1 1
Step Temp Press KinEng PotEng TotEng Density
10000          100    369.16847    1126.4481    758065.09    759191.53   0.04315593
Averages over the last 110 of 219 rows, steps 20900 to 31800:
Temp Press KinEng PotEng TotEng Density
107.093 -13.7385 1206.35 757794 759000 0.148601
   31900    110.51058
